/*---------------------------------------------------------------------------*\
| =========                 |                                                 |
| \\      /  F ield         | OpenFOAM: The Open Source CFD Toolbox           |
|  \\    /   O peration     | Version:  2412                                  |
|   \\  /    A nd           | Website:  www.openfoam.com                      |
|    \\/     M anipulation  |                                                 |
\*---------------------------------------------------------------------------*/
Build  : v2412 OPENFOAM=2412 version=v2412
Arch   : "LSB;label=32;scalar=64"
Exec   : chtMultiRegionSimpleFoam -parallel
Date   : Apr 14 2026
Time   : 18:12:17
Host   : AN990166144
PID    : 17030
I/O    : uncollated
Case   : /home/oches/OF/gmsh_extension/upload/myCase2-2-1_apply
nProcs : 8
Hosts  :
(
    (AN990166144 8)
)
Pstream initialized with:
    floatTransfer      : false
    maxCommsSize       : 0
    nProcsSimpleSum    : 0
    nonBlockingExchange: 0 (tuning: 0)
    exchange algorithm : 0
    commsType          : nonBlocking
    polling iterations : 0
trapFpe: Floating point exception trapping enabled (FOAM_SIGFPE).
fileModificationChecking : Monitoring run-time modified files using timeStampMaster (fileModificationSkew 5, maxFileModificationPolls 20)
allowSystemOperations : Allowing user-supplied system call operations

// * * * * * * * * * * * * * * * * * * * * * * * * * * * * * * * * * * * * * //
Create time

[7] 
[7] 
[7] --> FOAM FATAL ERROR: (openfoam-2412)
[7] Cannot find file "points" in directory "air/polyMesh" in times "0" down to constant
[7] 
[7]     From virtual Foam::IOobject Foam::fileOperation::findInstance(const Foam::IOobject&, Foam::scalar, const Foam::word&, bool) const
[7]     in file global/fileOperations/fileOperation/fileOperation.C at line 1225.
[7] 
FOAM parallel run exiting
[7] 
[5] 
[5] 
[5] --> FOAM FATAL ERROR: (openfoam-2412)
[5] Cannot find file "points" in directory "air/polyMesh" in times "0" down to constant
[5] 
[5]     From virtual Foam::IOobject Foam::fileOperation::findInstance(const Foam::IOobject&, Foam::scalar, const Foam::word&, bool) const
[5]     in file global/fileOperations/fileOperation/fileOperation.C at line 1225.
[5] 
FOAM parallel run exiting
[5] 
[6] 
[6] 
[6] --> FOAM FATAL ERROR: (openfoam-2412)
[6] Cannot find file "points" in directory "air/polyMesh" in times "0" down to constant
[6] 
[6]     From virtual Foam::IOobject Foam::fileOperation::findInstance(const Foam::IOobject&, Foam::scalar, const Foam::word&, bool) const
[6]     in file global/fileOperations/fileOperation/fileOperation.C at line 1225.
[6] 
FOAM parallel run exiting
[6] 
Create fluid mesh for region air for time = 0

[4] 
[4] 
[4] --> FOAM FATAL ERROR: (openfoam-2412)
[4] Cannot find file "points" in directory "air/polyMesh" in times "0" down to constant
[4] 
[4]     From virtual Foam::IOobject Foam::fileOperation::findInstance(const Foam::IOobject&, Foam::scalar, const Foam::word&, bool) const
[4]     in file global/fileOperations/fileOperation/fileOperation.C at line 1225.
[4] 
FOAM parallel run exiting
[4] 
--------------------------------------------------------------------------
MPI_ABORT was invoked on rank 5 in communicator MPI_COMM_WORLD
with errorcode 1.

NOTE: invoking MPI_ABORT causes Open MPI to kill all MPI processes.
You may or may not see output from other processes, depending on
exactly when Open MPI kills them.
--------------------------------------------------------------------------
[AN990166144:17027] 3 more processes have sent help message help-mpi-api.txt / mpi-abort
[AN990166144:17027] Set MCA parameter "orte_base_help_aggregate" to 0 to see all help / error messages
